ELEMENTS
O  H  C  N
END

SPECIES
NC12H26         O2      N2
END

TRANS ALL
NC12H26            2   789.980     7.047     0.000     0.000     1.000          
O2                 1   107.400     3.458     0.000     1.600     3.800          
N2                 1    97.530     3.621     0.000     1.760     4.000          
END

REACTIONS
END
